Version 4.1
SHEET 1 1068 792
WIRE 208 -208 144 -208
WIRE 336 -208 288 -208
WIRE 464 -208 336 -208
WIRE 560 -208 528 -208
WIRE 144 -160 144 -208
WIRE 336 -160 336 -208
WIRE -336 -96 -400 -96
WIRE -144 -96 -272 -96
WIRE -112 -96 -144 -96
WIRE -48 -96 -112 -96
WIRE -16 -96 -48 -96
WIRE 544 -96 496 -96
WIRE 560 -96 560 -208
WIRE 560 -96 544 -96
WIRE 592 -96 560 -96
WIRE 672 -96 656 -96
WIRE -400 -64 -400 -96
WIRE -112 -64 -112 -96
WIRE -48 0 -48 -96
WIRE -16 0 -48 0
WIRE 528 0 496 0
WIRE 608 0 528 0
WIRE -112 16 -112 0
WIRE -400 48 -400 16
WIRE -48 96 -48 0
WIRE -16 96 -48 96
WIRE 528 96 528 0
WIRE 528 96 496 96
WIRE -240 192 -464 192
WIRE -176 192 -240 192
WIRE -144 192 -176 192
WIRE -16 192 -144 192
WIRE 560 192 496 192
WIRE 720 192 560 192
WIRE 784 192 720 192
WIRE 848 192 784 192
WIRE 1008 192 848 192
WIRE -464 208 -464 192
WIRE 720 208 720 192
WIRE 784 208 784 192
WIRE 848 208 848 192
WIRE 1008 208 1008 192
WIRE -240 224 -240 192
WIRE -144 224 -144 192
WIRE 560 224 560 192
WIRE -16 288 -64 288
WIRE 512 288 496 288
WIRE 720 304 720 272
WIRE 784 304 784 272
WIRE 848 304 848 272
WIRE 1008 304 1008 288
WIRE -144 320 -144 304
WIRE -64 320 -64 288
WIRE -64 320 -144 320
WIRE 512 320 512 288
WIRE 544 320 512 320
WIRE 560 320 560 304
WIRE 560 320 544 320
WIRE -464 336 -464 288
WIRE -240 336 -240 288
WIRE -144 352 -144 320
WIRE -16 384 -48 384
WIRE 528 384 496 384
WIRE 592 384 528 384
WIRE 608 384 592 384
WIRE 608 416 608 384
WIRE -144 480 -144 432
WIRE -48 480 -48 384
WIRE -16 480 -48 480
WIRE 528 480 528 384
WIRE 528 480 496 480
WIRE -48 576 -48 480
WIRE -16 576 -48 576
WIRE 608 576 608 480
WIRE 608 576 496 576
WIRE -48 640 -48 576
WIRE 240 640 240 624
WIRE 608 640 608 576
FLAG 240 640 0
FLAG 672 -96 0
FLAG 720 304 0
FLAG 1008 304 0
FLAG -112 16 0
FLAG -464 336 0
FLAG 1008 192 OUT
FLAG -176 192 IN
FLAG -400 48 0
FLAG -144 -96 BAT
FLAG -240 336 0
FLAG -48 640 0
FLAG 784 304 0
FLAG 848 304 0
FLAG 608 640 0
FLAG 592 384 VCC
FLAG 544 -96 AUX
FLAG 144 -208 SW1
FLAG 336 -208 SW2
FLAG -144 480 0
FLAG 608 0 VCC
FLAG 544 320 PG
SYMBOL PowerProducts\\LTC3106 240 240 R0
SYMATTR InstName U1
SYMBOL ind 192 -192 R270
WINDOW 0 32 56 VTop 2
WINDOW 3 5 56 VBottom 2
SYMATTR InstName L1
SYMATTR Value 10µ
SYMATTR SpiceLine Rser=30m
SYMBOL cap 592 -80 R270
WINDOW 0 32 32 VTop 2
WINDOW 3 0 32 VBottom 2
SYMATTR InstName C1
SYMATTR Value 4.7µ
SYMATTR SpiceLine Rser=1m
SYMBOL cap 704 208 R0
SYMATTR InstName C2
SYMATTR Value 22µ
SYMATTR SpiceLine Rser=1m
SYMBOL cap -128 -64 R0
SYMATTR InstName C4
SYMATTR Value 22µ
SYMATTR SpiceLine Rser=1m
SYMBOL res 992 192 R0
SYMATTR InstName R1
SYMATTR Value 500
SYMBOL voltage -464 192 M0
WINDOW 123 0 0 Left 0
WINDOW 39 24 120 Left 2
SYMATTR SpiceLine Rser=80m
SYMATTR InstName V1
SYMATTR Value PULSE(5 0 10m 5n 5n 10m 2)
SYMBOL voltage -400 -80 R0
WINDOW 123 0 0 Left 0
WINDOW 39 0 0 Left 0
SYMATTR InstName V2
SYMATTR Value 2.5
SYMBOL cap -272 -112 R90
WINDOW 0 0 32 VBottom 2
WINDOW 3 32 32 VTop 2
SYMATTR InstName C3
SYMATTR Value 1
SYMATTR SpiceLine Rser=1m
SYMBOL cap -256 224 R0
SYMATTR InstName C5
SYMATTR Value 4.7µ
SYMATTR SpiceLine Rser=1m
SYMBOL cap 768 208 R0
SYMATTR InstName C6
SYMATTR Value 22µ
SYMATTR SpiceLine Rser=1m
SYMBOL cap 832 208 R0
SYMATTR InstName C7
SYMATTR Value 22µ
SYMATTR SpiceLine Rser=1m
SYMBOL cap 592 416 R0
SYMATTR InstName C8
SYMATTR Value 100n
SYMATTR SpiceLine Rser=1m
SYMBOL res -160 208 R0
SYMATTR InstName R3
SYMATTR Value 80k
SYMBOL res -160 336 R0
SYMATTR InstName R4
SYMATTR Value 20k
SYMBOL res 544 208 R0
SYMATTR InstName R5
SYMATTR Value 100k
SYMBOL diode 464 -192 R270
WINDOW 0 32 32 VTop 2
WINDOW 3 0 32 VBottom 2
SYMATTR InstName D1
SYMATTR Value BAT54
SYMATTR Description Diode
SYMATTR Type diode
TEXT 424 752 Left 2 !.ic V(BAT)=3 V(OUT)=4.5\n.tran 2
