Version 4.1
SHEET 1 1380 680
WIRE 544 -64 464 -64
WIRE 544 -32 544 -64
WIRE 736 -32 688 -32
WIRE 784 -32 736 -32
WIRE 944 -32 848 -32
WIRE 1008 -32 944 -32
WIRE 1072 -32 1008 -32
WIRE 1136 -32 1072 -32
WIRE 1232 -32 1136 -32
WIRE 1312 -32 1232 -32
WIRE 1344 -32 1312 -32
WIRE 1232 0 1232 -32
WIRE 944 16 944 -32
WIRE 1008 16 1008 -32
WIRE 1072 16 1072 -32
WIRE 1136 16 1136 -32
WIRE 1344 16 1344 -32
WIRE -80 96 -208 96
WIRE 0 96 -80 96
WIRE 144 96 0 96
WIRE 464 96 368 96
WIRE 544 96 544 48
WIRE 544 96 464 96
WIRE 688 112 688 48
WIRE 0 128 0 96
WIRE 944 128 944 80
WIRE 1008 128 1008 80
WIRE 1072 128 1072 80
WIRE 1136 128 1136 80
WIRE 1232 128 1232 80
WIRE 1344 128 1344 80
WIRE -208 144 -208 96
WIRE 0 224 0 192
WIRE 112 224 96 224
WIRE 144 224 112 224
WIRE 416 224 368 224
WIRE 544 224 544 96
WIRE 544 224 496 224
WIRE -208 256 -208 224
WIRE 96 288 96 224
WIRE 256 352 256 272
WIRE 96 416 96 368
FLAG 256 352 0
FLAG -208 256 0
FLAG 0 224 0
FLAG 96 416 0
FLAG -80 96 SUP
FLAG 464 -64 SUP
FLAG 464 96 SW
FLAG 688 112 0
FLAG 944 128 0
FLAG 1008 128 0
FLAG 1072 128 0
FLAG 1136 128 0
FLAG 1232 128 0
FLAG 1312 -32 OUT
FLAG 736 -32 SEC
FLAG 112 224 EN
FLAG 1344 128 0
SYMBOL PowerProducts\\LT8301 256 160 R0
SYMATTR InstName U1
SYMBOL res 512 208 R90
WINDOW 0 0 56 VBottom 2
WINDOW 3 32 56 VTop 2
SYMATTR InstName R1
SYMATTR Value 180k
SYMBOL voltage -208 128 R0
WINDOW 123 0 0 Left 0
WINDOW 39 24 120 Left 2
SYMATTR SpiceLine Rser=100m
SYMATTR InstName V1
SYMATTR Value 5
SYMBOL cap -16 128 R0
SYMATTR InstName C1
SYMATTR Value 4.7µ
SYMATTR SpiceLine Rser=1m
SYMBOL voltage 96 272 M0
WINDOW 123 0 0 Left 0
WINDOW 39 0 0 Left 0
SYMATTR InstName V2
SYMATTR Value PULSE(0 5 10m 5n 5n 100m 1)
SYMBOL ind 528 -48 R0
SYMATTR InstName L1
SYMATTR Value 28µ
SYMATTR SpiceLine Rser=.23
SYMBOL ind 704 64 R180
WINDOW 0 36 80 Left 2
WINDOW 3 36 40 Left 2
SYMATTR InstName L2
SYMATTR Value 252µ
SYMATTR SpiceLine Rser=1.44
SYMBOL diode 784 -16 R270
WINDOW 0 32 32 VTop 2
WINDOW 3 0 32 VBottom 2
SYMATTR InstName D1
SYMATTR Value MBRS1100
SYMBOL cap 928 16 R0
SYMATTR InstName C2
SYMATTR Value 3µ
SYMATTR SpiceLine Rser=1m
SYMBOL cap 992 16 R0
SYMATTR InstName C3
SYMATTR Value 3µ
SYMATTR SpiceLine Rser=1m
SYMBOL cap 1056 16 R0
SYMATTR InstName C4
SYMATTR Value 3µ
SYMATTR SpiceLine Rser=1m
SYMBOL cap 1120 16 R0
SYMATTR InstName C5
SYMATTR Value 3µ
SYMATTR SpiceLine Rser=1m
SYMBOL res 1216 -16 R0
SYMATTR InstName R2
SYMATTR Value 100k
SYMBOL cap 1328 16 R0
SYMATTR InstName C6
SYMATTR Value 3k
SYMATTR SpiceLine Rser=50m
TEXT 792 240 Left 2 !K1 L1 L2 1\n.ic V(OUT)=40\n.tran 130m
